MODEL 1
REMARK VINA RESULT:   -11.824      0.000      0.000
REMARK INTER + INTRA:         -25.133
REMARK INTER:                 -20.515
REMARK INTRA:                  -4.617
REMARK UNBOUND:                -2.248
REMARK  16 active torsions:
REMARK  status: ('A' for Active; 'I' for Inactive)
REMARK    1  A    between atoms: C1_1  and  C2_4 
REMARK    2  A    between atoms: C1_1  and  C3_6 
REMARK    3  A    between atoms: C2_4  and  C4_9 
REMARK    4  A    between atoms: C2_4  and  N2_33 
REMARK    5  A    between atoms: C3_6  and  N1_14 
REMARK    6  A    between atoms: C4_9  and  S1_12 
REMARK    7  A    between atoms: S1_12  and  C5_13 
REMARK    8  A    between atoms: N2_33  and  C17_41 
REMARK    9  A    between atoms: C14_37  and  S2_44 
REMARK   10  A    between atoms: C16_40  and  N7_102 
REMARK   11  A    between atoms: S2_44  and  N6_97 
REMARK   12  A    between atoms: C21_51  and  C25_57 
REMARK   13  A    between atoms: C22_52  and  C31_67 
REMARK   14  A    between atoms: C31_67  and  N3_70 
REMARK   15  A    between atoms: N4_77  and  C36_84 
REMARK   16  A    between atoms: C42_96  and  N6_97 
ROOT
HETATM    1  C36 1E9 A 201      10.785  24.293   8.388  1.00 18.75     0.031 A 
HETATM    2  C37 1E9 A 201      11.616  25.314   7.855  1.00 16.19     0.055 A 
HETATM    3  C38 1E9 A 201      12.765  22.864   8.818  1.00 19.30     0.019 A 
HETATM    4  C39 1E9 A 201      11.368  23.076   8.848  1.00 19.11     0.030 A 
HETATM    5  C40 1E9 A 201      13.559  23.897   8.299  1.00 19.63     0.033 A 
HETATM    6  C41 1E9 A 201      12.999  25.079   7.840  1.00 16.72     0.096 A 
HETATM    7  S3  1E9 A 201      14.306  26.103   7.273  1.00 18.06     0.265 S 
HETATM    8  N5  1E9 A 201      15.501  25.019   7.654  1.00 17.57    -0.264 N 
HETATM    9  H5  1E9 A 201      16.495  25.190   7.502  1.00  0.00     0.180 HD
HETATM   10  C42 1E9 A 201      15.025  23.931   8.168  1.00 20.00     0.136 A 
HETATM   11  O3  1E9 A 201      14.234  26.205   5.802  1.00 20.15    -0.200 OA
HETATM   12  O4  1E9 A 201      14.397  27.335   8.070  1.00 17.05    -0.200 OA
ENDROOT
BRANCH  10  13
HETATM   13  N6  1E9 A 201      15.762  22.830   8.580  1.00 19.56    -0.264 N 
HETATM   14  H6  1E9 A 201      15.305  21.918   8.604  1.00  0.00     0.180 HD
BRANCH  13  15
HETATM   15  S2  1E9 A 201      17.391  22.937   9.045  1.00 22.41     0.264 S 
HETATM   16  O1  1E9 A 201      17.697  21.583   9.530  1.00 23.80    -0.200 OA
HETATM   17  O2  1E9 A 201      18.083  23.548   7.891  1.00 22.92    -0.200 OA
BRANCH  15  18
HETATM   18  C14 1E9 A 201      17.450  24.060  10.423  1.00 23.02     0.082 A 
HETATM   19  C13 1E9 A 201      17.746  25.416  10.224  1.00 21.77     0.028 A 
HETATM   20  C18 1E9 A 201      17.772  26.263  11.338  1.00 19.95     0.033 A 
HETATM   21  C17 1E9 A 201      17.498  25.783  12.646  1.00 22.61     0.061 A 
HETATM   22  C16 1E9 A 201      17.183  24.404  12.824  1.00 23.52     0.130 A 
HETATM   23  C15 1E9 A 201      17.173  23.551  11.699  1.00 21.63     0.063 A 
BRANCH  21  24
HETATM   24  N2  1E9 A 201      17.527  26.658  13.677  1.00 23.64    -0.383 N 
HETATM   25  H2  1E9 A 201      17.462  26.266  14.617  1.00  0.00     0.160 HD
BRANCH  24  26
HETATM   26  C2  1E9 A 201      17.642  28.112  13.572  1.00 26.22     0.093 C 
BRANCH  26  27
HETATM   27  C1  1E9 A 201      19.023  28.624  14.036  1.00 31.62     0.056 C 
BRANCH  27  28
HETATM   28  C3  1E9 A 201      19.114  29.040  15.516  1.00 33.21     0.273 C 
BRANCH  28  29
HETATM   29  N1  1E9 A 201      19.635  27.932  16.323  1.00 35.97     0.080 N 
HETATM   30  C6  1E9 A 201      20.695  28.427  17.196  1.00 32.92     0.309 C 
HETATM   31  C7  1E9 A 201      18.584  27.307  17.129  1.00 34.94     0.309 C 
ENDBRANCH  28  29
ENDBRANCH  27  28
ENDBRANCH  26  27
BRANCH  26  32
HETATM   32  C4  1E9 A 201      16.506  28.827  14.353  1.00 25.82     0.104 C 
BRANCH  32  33
HETATM   33  S1  1E9 A 201      14.909  29.084  13.490  1.00 29.66    -0.128 SA
BRANCH  33  34
HETATM   34  C5  1E9 A 201      14.314  27.499  13.018  1.00 22.11     0.000 A 
HETATM   35  C8  1E9 A 201      14.072  27.213  11.662  1.00 22.15     0.018 A 
HETATM   36  C9  1E9 A 201      13.596  25.936  11.305  1.00 19.48     0.001 A 
HETATM   37  C10 1E9 A 201      13.380  24.957  12.297  1.00 17.77     0.000 A 
HETATM   38  C11 1E9 A 201      13.625  25.251  13.653  1.00 21.70     0.001 A 
HETATM   39  C12 1E9 A 201      14.100  26.526  14.017  1.00 20.86     0.018 A 
ENDBRANCH  33  34
ENDBRANCH  32  33
ENDBRANCH  26  32
ENDBRANCH  24  26
ENDBRANCH  21  24
BRANCH  22  40
HETATM   40  N7  1E9 A 201      16.898  23.793  14.140  1.00 25.21    -0.113 N 
HETATM   41  O5  1E9 A 201      16.546  22.618  14.165  1.00 29.38    -0.532 OA
HETATM   42  O6  1E9 A 201      17.068  24.459  15.151  1.00 22.75    -0.532 OA
ENDBRANCH  22  40
ENDBRANCH  15  18
ENDBRANCH  13  15
ENDBRANCH  10  13
BRANCH   1  43
HETATM   43  N4  1E9 A 201       9.440  24.438   8.464  1.00 20.11    -0.377 N 
HETATM   44  C33 1E9 A 201       8.579  23.322   8.911  1.00 21.29     0.153 C 
HETATM   45  C32 1E9 A 201       7.187  23.789   9.415  1.00 19.39     0.292 C 
HETATM   46  N3  1E9 A 201       6.549  24.572   8.347  1.00 22.93     0.095 N 
HETATM   47  C35 1E9 A 201       7.345  25.797   8.166  1.00 21.59     0.292 C 
HETATM   48  C34 1E9 A 201       8.712  25.365   7.587  1.00 20.66     0.153 C 
BRANCH  46  49
HETATM   49  C31 1E9 A 201       5.144  24.868   8.662  1.00 24.32     0.312 C 
BRANCH  49  50
HETATM   50  C22 1E9 A 201       4.353  23.566   8.778  1.00 23.38    -0.019 A 
HETATM   51  C21 1E9 A 201       3.841  23.111  10.032  1.00 19.94    -0.018 A 
HETATM   52  C20 1E9 A 201       3.132  21.885  10.076  1.00 21.54     0.013 A 
HETATM   53  C19 1E9 A 201       2.956  21.103   8.911  1.00 24.24     0.001 A 
HETATM   54  C24 1E9 A 201       3.490  21.551   7.681  1.00 26.65     0.001 A 
HETATM   55  C23 1E9 A 201       4.186  22.775   7.613  1.00 23.38     0.010 A 
BRANCH  51  56
HETATM   56  C25 1E9 A 201       3.938  23.817  11.328  1.00 21.83    -0.025 A 
HETATM   57  C26 1E9 A 201       3.437  25.134  11.493  1.00 22.31     0.014 A 
HETATM   58  C27 1E9 A 201       3.500  25.782  12.748  1.00 21.61     0.024 A 
HETATM   59  C28 1E9 A 201       4.058  25.113  13.854  1.00 21.37     0.034 A 
HETATM   60  C29 1E9 A 201       4.566  23.804  13.709  1.00 18.64     0.024 A 
HETATM   61 CL1  1E9 A 201       4.129  25.897  15.392  1.00 25.72    -0.084 Cl
HETATM   62  C30 1E9 A 201       4.498  23.155  12.451  1.00 20.46     0.014 A 
ENDBRANCH  51  56
ENDBRANCH  49  50
ENDBRANCH  46  49
ENDBRANCH   1  43
TORSDOF 16
ENDMDL
MODEL 2
REMARK VINA RESULT:   -10.646      1.667      3.309
REMARK INTER + INTRA:         -22.852
REMARK INTER:                 -19.406
REMARK INTRA:                  -3.445
REMARK UNBOUND:                -2.248
REMARK  16 active torsions:
REMARK  status: ('A' for Active; 'I' for Inactive)
REMARK    1  A    between atoms: C1_1  and  C2_4 
REMARK    2  A    between atoms: C1_1  and  C3_6 
REMARK    3  A    between atoms: C2_4  and  C4_9 
REMARK    4  A    between atoms: C2_4  and  N2_33 
REMARK    5  A    between atoms: C3_6  and  N1_14 
REMARK    6  A    between atoms: C4_9  and  S1_12 
REMARK    7  A    between atoms: S1_12  and  C5_13 
REMARK    8  A    between atoms: N2_33  and  C17_41 
REMARK    9  A    between atoms: C14_37  and  S2_44 
REMARK   10  A    between atoms: C16_40  and  N7_102 
REMARK   11  A    between atoms: S2_44  and  N6_97 
REMARK   12  A    between atoms: C21_51  and  C25_57 
REMARK   13  A    between atoms: C22_52  and  C31_67 
REMARK   14  A    between atoms: C31_67  and  N3_70 
REMARK   15  A    between atoms: N4_77  and  C36_84 
REMARK   16  A    between atoms: C42_96  and  N6_97 
ROOT
HETATM    1  C36 1E9 A 201      10.945  24.354   8.274  1.00 18.75     0.031 A 
HETATM    2  C37 1E9 A 201      11.732  25.276   7.534  1.00 16.19     0.055 A 
HETATM    3  C38 1E9 A 201      12.984  23.130   8.976  1.00 19.30     0.019 A 
HETATM    4  C39 1E9 A 201      11.579  23.285   8.973  1.00 19.11     0.030 A 
HETATM    5  C40 1E9 A 201      13.733  24.065   8.247  1.00 19.63     0.033 A 
HETATM    6  C41 1E9 A 201      13.123  25.101   7.557  1.00 16.72     0.096 A 
HETATM    7  S3  1E9 A 201      14.385  26.038   6.778  1.00 18.06     0.265 S 
HETATM    8  N5  1E9 A 201      15.626  25.108   7.366  1.00 17.57    -0.264 N 
HETATM    9  H5  1E9 A 201      16.612  25.285   7.173  1.00  0.00     0.180 HD
HETATM   10  C42 1E9 A 201      15.197  24.132   8.099  1.00 20.00     0.136 A 
HETATM   11  O3  1E9 A 201      14.310  25.828   5.318  1.00 20.15    -0.200 OA
HETATM   12  O4  1E9 A 201      14.423  27.412   7.299  1.00 17.05    -0.200 OA
ENDROOT
BRANCH  10  13
HETATM   13  N6  1E9 A 201      15.980  23.173   8.725  1.00 19.56    -0.264 N 
HETATM   14  H6  1E9 A 201      15.577  22.253   8.902  1.00  0.00     0.180 HD
BRANCH  13  15
HETATM   15  S2  1E9 A 201      17.580  23.468   9.209  1.00 22.41     0.264 S 
HETATM   16  O1  1E9 A 201      18.057  22.142   9.633  1.00 23.80    -0.200 OA
HETATM   17  O2  1E9 A 201      18.191  24.217   8.091  1.00 22.92    -0.200 OA
BRANCH  15  18
HETATM   18  C14 1E9 A 201      17.489  24.522  10.639  1.00 23.02     0.082 A 
HETATM   19  C13 1E9 A 201      17.656  25.908  10.512  1.00 21.77     0.028 A 
HETATM   20  C18 1E9 A 201      17.566  26.698  11.665  1.00 19.95     0.033 A 
HETATM   21  C17 1E9 A 201      17.304  26.130  12.939  1.00 22.61     0.061 A 
HETATM   22  C16 1E9 A 201      17.121  24.720  13.044  1.00 23.52     0.130 A 
HETATM   23  C15 1E9 A 201      17.227  23.927  11.881  1.00 21.63     0.063 A 
BRANCH  21  24
HETATM   24  N2  1E9 A 201      17.217  26.952  14.010  1.00 23.64    -0.383 N 
HETATM   25  H2  1E9 A 201      18.035  27.009  14.616  1.00  0.00     0.160 HD
BRANCH  24  26
HETATM   26  C2  1E9 A 201      16.060  27.767  14.380  1.00 26.22     0.093 C 
BRANCH  26  27
HETATM   27  C1  1E9 A 201      14.724  27.060  14.066  1.00 31.62     0.056 C 
BRANCH  27  28
HETATM   28  C3  1E9 A 201      13.937  27.627  12.870  1.00 33.21     0.273 C 
BRANCH  28  29
HETATM   29  N1  1E9 A 201      13.270  26.543  12.142  1.00 35.97     0.080 N 
HETATM   30  C6  1E9 A 201      13.686  26.573  10.744  1.00 32.92     0.309 C 
HETATM   31  C7  1E9 A 201      13.576  25.233  12.719  1.00 34.94     0.309 C 
ENDBRANCH  28  29
ENDBRANCH  27  28
ENDBRANCH  26  27
BRANCH  26  32
HETATM   32  C4  1E9 A 201      16.110  29.162  13.700  1.00 25.82     0.104 C 
BRANCH  32  33
HETATM   33  S1  1E9 A 201      17.429  30.321  14.229  1.00 29.66    -0.128 SA
BRANCH  33  34
HETATM   34  C5  1E9 A 201      16.660  31.868  14.552  1.00 22.11     0.000 A 
HETATM   35  C8  1E9 A 201      15.422  32.175  13.959  1.00 22.15     0.018 A 
HETATM   36  C9  1E9 A 201      14.821  33.420  14.231  1.00 19.48     0.001 A 
HETATM   37  C10 1E9 A 201      15.451  34.337  15.099  1.00 17.77     0.000 A 
HETATM   38  C11 1E9 A 201      16.692  34.021  15.690  1.00 21.70     0.001 A 
HETATM   39  C12 1E9 A 201      17.297  32.778  15.420  1.00 20.86     0.018 A 
ENDBRANCH  33  34
ENDBRANCH  32  33
ENDBRANCH  26  32
ENDBRANCH  24  26
ENDBRANCH  21  24
BRANCH  22  40
HETATM   40  N7  1E9 A 201      16.861  24.020  14.319  1.00 25.21    -0.113 N 
HETATM   41  O5  1E9 A 201      16.259  22.952  14.278  1.00 29.38    -0.532 OA
HETATM   42  O6  1E9 A 201      17.292  24.503  15.357  1.00 22.75    -0.532 OA
ENDBRANCH  22  40
ENDBRANCH  15  18
ENDBRANCH  13  15
ENDBRANCH  10  13
BRANCH   1  43
HETATM   43  N4  1E9 A 201       9.595  24.455   8.330  1.00 20.11    -0.377 N 
HETATM   44  C33 1E9 A 201       8.776  23.379   8.928  1.00 21.29     0.153 C 
HETATM   45  C32 1E9 A 201       7.364  23.857   9.363  1.00 19.39     0.292 C 
HETATM   46  N3  1E9 A 201       6.702  24.457   8.197  1.00 22.93     0.095 N 
HETATM   47  C35 1E9 A 201       7.450  25.676   7.847  1.00 21.59     0.292 C 
HETATM   48  C34 1E9 A 201       8.836  25.222   7.333  1.00 20.66     0.153 C 
BRANCH  46  49
HETATM   49  C31 1E9 A 201       5.284  24.739   8.468  1.00 24.32     0.312 C 
BRANCH  49  50
HETATM   50  C22 1E9 A 201       4.510  23.428   8.592  1.00 23.38    -0.019 A 
HETATM   51  C21 1E9 A 201       3.946  23.007   9.836  1.00 19.94    -0.018 A 
HETATM   52  C20 1E9 A 201       3.256  21.771   9.890  1.00 21.54     0.013 A 
HETATM   53  C19 1E9 A 201       3.147  20.947   8.746  1.00 24.24     0.001 A 
HETATM   54  C24 1E9 A 201       3.732  21.361   7.527  1.00 26.65     0.001 A 
HETATM   55  C23 1E9 A 201       4.411  22.595   7.449  1.00 23.38     0.010 A 
BRANCH  51  56
HETATM   56  C25 1E9 A 201       3.971  23.759  11.110  1.00 21.83    -0.025 A 
HETATM   57  C26 1E9 A 201       3.518  25.100  11.186  1.00 22.31     0.014 A 
HETATM   58  C27 1E9 A 201       3.509  25.794  12.419  1.00 21.61     0.024 A 
HETATM   59  C28 1E9 A 201       3.946  25.146  13.590  1.00 21.37     0.034 A 
HETATM   60  C29 1E9 A 201       4.405  23.812  13.534  1.00 18.64     0.024 A 
HETATM   61 CL1  1E9 A 201       3.929  25.985  15.100  1.00 25.72    -0.084 Cl
HETATM   62  C30 1E9 A 201       4.409  23.118  12.298  1.00 20.46     0.014 A 
ENDBRANCH  51  56
ENDBRANCH  49  50
ENDBRANCH  46  49
ENDBRANCH   1  43
TORSDOF 16
ENDMDL
MODEL 3
REMARK VINA RESULT:   -10.449      0.938      3.328
REMARK INTER + INTRA:         -22.471
REMARK INTER:                 -19.020
REMARK INTRA:                  -3.450
REMARK UNBOUND:                -2.248
REMARK  16 active torsions:
REMARK  status: ('A' for Active; 'I' for Inactive)
REMARK    1  A    between atoms: C1_1  and  C2_4 
REMARK    2  A    between atoms: C1_1  and  C3_6 
REMARK    3  A    between atoms: C2_4  and  C4_9 
REMARK    4  A    between atoms: C2_4  and  N2_33 
REMARK    5  A    between atoms: C3_6  and  N1_14 
REMARK    6  A    between atoms: C4_9  and  S1_12 
REMARK    7  A    between atoms: S1_12  and  C5_13 
REMARK    8  A    between atoms: N2_33  and  C17_41 
REMARK    9  A    between atoms: C14_37  and  S2_44 
REMARK   10  A    between atoms: C16_40  and  N7_102 
REMARK   11  A    between atoms: S2_44  and  N6_97 
REMARK   12  A    between atoms: C21_51  and  C25_57 
REMARK   13  A    between atoms: C22_52  and  C31_67 
REMARK   14  A    between atoms: C31_67  and  N3_70 
REMARK   15  A    between atoms: N4_77  and  C36_84 
REMARK   16  A    between atoms: C42_96  and  N6_97 
ROOT
HETATM    1  C36 1E9 A 201      10.796  24.271   8.321  1.00 18.75     0.031 A 
HETATM    2  C37 1E9 A 201      11.621  25.313   7.820  1.00 16.19     0.055 A 
HETATM    3  C38 1E9 A 201      12.794  22.906   8.862  1.00 19.30     0.019 A 
HETATM    4  C39 1E9 A 201      11.391  23.076   8.821  1.00 19.11     0.030 A 
HETATM    5  C40 1E9 A 201      13.581  23.959   8.373  1.00 19.63     0.033 A 
HETATM    6  C41 1E9 A 201      13.009  25.119   7.875  1.00 16.72     0.096 A 
HETATM    7  S3  1E9 A 201      14.311  26.178   7.362  1.00 18.06     0.265 S 
HETATM    8  N5  1E9 A 201      15.518  25.134   7.812  1.00 17.57    -0.264 N 
HETATM    9  H5  1E9 A 201      16.513  25.333   7.707  1.00  0.00     0.180 HD
HETATM   10  C42 1E9 A 201      15.050  24.036   8.312  1.00 20.00     0.136 A 
HETATM   11  O3  1E9 A 201      14.309  26.266   5.888  1.00 20.15    -0.200 OA
HETATM   12  O4  1E9 A 201      14.326  27.419   8.151  1.00 17.05    -0.200 OA
ENDROOT
BRANCH  10  13
HETATM   13  N6  1E9 A 201      15.798  22.961   8.771  1.00 19.56    -0.264 N 
HETATM   14  H6  1E9 A 201      15.343  22.054   8.863  1.00  0.00     0.180 HD
BRANCH  13  15
HETATM   15  S2  1E9 A 201      17.440  23.094   9.183  1.00 22.41     0.264 S 
HETATM   16  O1  1E9 A 201      17.782  21.746   9.661  1.00 23.80    -0.200 OA
HETATM   17  O2  1E9 A 201      18.085  23.712   8.005  1.00 22.92    -0.200 OA
BRANCH  15  18
HETATM   18  C14 1E9 A 201      17.525  24.222  10.556  1.00 23.02     0.082 A 
HETATM   19  C13 1E9 A 201      17.934  25.548  10.362  1.00 21.77     0.028 A 
HETATM   20  C18 1E9 A 201      17.977  26.402  11.472  1.00 19.95     0.033 A 
HETATM   21  C17 1E9 A 201      17.611  25.955  12.769  1.00 22.61     0.061 A 
HETATM   22  C16 1E9 A 201      17.183  24.606  12.941  1.00 23.52     0.130 A 
HETATM   23  C15 1E9 A 201      17.155  23.747  11.822  1.00 21.63     0.063 A 
BRANCH  21  24
HETATM   24  N2  1E9 A 201      17.663  26.835  13.796  1.00 23.64    -0.383 N 
HETATM   25  H2  1E9 A 201      18.405  26.701  14.482  1.00  0.00     0.160 HD
BRANCH  24  26
HETATM   26  C2  1E9 A 201      16.753  27.960  14.014  1.00 26.22     0.093 C 
BRANCH  26  27
HETATM   27  C1  1E9 A 201      15.419  27.787  13.258  1.00 31.62     0.056 C 
BRANCH  27  28
HETATM   28  C3  1E9 A 201      14.398  26.841  13.917  1.00 33.21     0.273 C 
BRANCH  28  29
HETATM   29  N1  1E9 A 201      13.530  26.243  12.899  1.00 35.97     0.080 N 
HETATM   30  C6  1E9 A 201      14.166  26.362  11.591  1.00 32.92     0.309 C 
HETATM   31  C7  1E9 A 201      13.250  24.834  13.184  1.00 34.94     0.309 C 
ENDBRANCH  28  29
ENDBRANCH  27  28
ENDBRANCH  26  27
BRANCH  26  32
HETATM   32  C4  1E9 A 201      17.423  29.309  13.635  1.00 25.82     0.104 C 
BRANCH  32  33
HETATM   33  S1  1E9 A 201      18.098  30.337  14.994  1.00 29.66    -0.128 SA
BRANCH  33  34
HETATM   34  C5  1E9 A 201      19.554  29.541  15.572  1.00 22.11     0.000 A 
HETATM   35  C8  1E9 A 201      20.393  28.866  14.667  1.00 22.15     0.018 A 
HETATM   36  C9  1E9 A 201      21.556  28.234  15.150  1.00 19.48     0.001 A 
HETATM   37  C10 1E9 A 201      21.876  28.292  16.522  1.00 17.77     0.000 A 
HETATM   38  C11 1E9 A 201      21.030  28.970  17.423  1.00 21.70     0.001 A 
HETATM   39  C12 1E9 A 201      19.866  29.603  16.946  1.00 20.86     0.018 A 
ENDBRANCH  33  34
ENDBRANCH  32  33
ENDBRANCH  26  32
ENDBRANCH  24  26
ENDBRANCH  21  24
BRANCH  22  40
HETATM   40  N7  1E9 A 201      16.795  24.031  14.246  1.00 25.21    -0.113 N 
HETATM   41  O5  1E9 A 201      16.102  23.018  14.246  1.00 29.38    -0.532 OA
HETATM   42  O6  1E9 A 201      17.213  24.552  15.270  1.00 22.75    -0.532 OA
ENDBRANCH  22  40
ENDBRANCH  15  18
ENDBRANCH  13  15
ENDBRANCH  10  13
BRANCH   1  43
HETATM   43  N4  1E9 A 201       9.445  24.376   8.330  1.00 20.11    -0.377 N 
HETATM   44  C33 1E9 A 201       8.603  23.311   8.916  1.00 21.29     0.153 C 
HETATM   45  C32 1E9 A 201       7.179  23.798   9.297  1.00 19.39     0.292 C 
HETATM   46  N3  1E9 A 201       6.557  24.383   8.100  1.00 22.93     0.095 N 
HETATM   47  C35 1E9 A 201       7.320  25.595   7.758  1.00 21.59     0.292 C 
HETATM   48  C34 1E9 A 201       8.721  25.130   7.297  1.00 20.66     0.153 C 
BRANCH  46  49
HETATM   49  C31 1E9 A 201       5.133  24.672   8.320  1.00 24.32     0.312 C 
BRANCH  49  50
HETATM   50  C22 1E9 A 201       4.361  23.366   8.499  1.00 23.38    -0.019 A 
HETATM   51  C21 1E9 A 201       3.822  22.983   9.766  1.00 19.94    -0.018 A 
HETATM   52  C20 1E9 A 201       3.134  21.749   9.871  1.00 21.54     0.013 A 
HETATM   53  C19 1E9 A 201       3.002  20.891   8.755  1.00 24.24     0.001 A 
HETATM   54  C24 1E9 A 201       3.561  21.269   7.512  1.00 26.65     0.001 A 
HETATM   55  C23 1E9 A 201       4.239  22.499   7.383  1.00 23.38     0.010 A 
BRANCH  51  56
HETATM   56  C25 1E9 A 201       3.873  23.772  11.016  1.00 21.83    -0.025 A 
HETATM   57  C26 1E9 A 201       3.527  25.147  11.037  1.00 22.31     0.014 A 
HETATM   58  C27 1E9 A 201       3.540  25.880  12.246  1.00 21.61     0.024 A 
HETATM   59  C28 1E9 A 201       3.892  25.239  13.450  1.00 21.37     0.034 A 
HETATM   60  C29 1E9 A 201       4.244  23.872  13.449  1.00 18.64     0.024 A 
HETATM   61 CL1  1E9 A 201       3.902  26.127  14.932  1.00 25.72    -0.084 Cl
HETATM   62  C30 1E9 A 201       4.226  23.139  12.236  1.00 20.46     0.014 A 
ENDBRANCH  51  56
ENDBRANCH  49  50
ENDBRANCH  46  49
ENDBRANCH   1  43
TORSDOF 16
ENDMDL
MODEL 4
REMARK VINA RESULT:   -10.252      1.548      3.299
REMARK INTER + INTRA:         -22.090
REMARK INTER:                 -19.224
REMARK INTRA:                  -2.866
REMARK UNBOUND:                -2.248
REMARK  16 active torsions:
REMARK  status: ('A' for Active; 'I' for Inactive)
REMARK    1  A    between atoms: C1_1  and  C2_4 
REMARK    2  A    between atoms: C1_1  and  C3_6 
REMARK    3  A    between atoms: C2_4  and  C4_9 
REMARK    4  A    between atoms: C2_4  and  N2_33 
REMARK    5  A    between atoms: C3_6  and  N1_14 
REMARK    6  A    between atoms: C4_9  and  S1_12 
REMARK    7  A    between atoms: S1_12  and  C5_13 
REMARK    8  A    between atoms: N2_33  and  C17_41 
REMARK    9  A    between atoms: C14_37  and  S2_44 
REMARK   10  A    between atoms: C16_40  and  N7_102 
REMARK   11  A    between atoms: S2_44  and  N6_97 
REMARK   12  A    between atoms: C21_51  and  C25_57 
REMARK   13  A    between atoms: C22_52  and  C31_67 
REMARK   14  A    between atoms: C31_67  and  N3_70 
REMARK   15  A    between atoms: N4_77  and  C36_84 
REMARK   16  A    between atoms: C42_96  and  N6_97 
ROOT
HETATM    1  C36 1E9 A 201      10.957  24.397   8.397  1.00 18.75     0.031 A 
HETATM    2  C37 1E9 A 201      11.756  25.393   7.775  1.00 16.19     0.055 A 
HETATM    3  C38 1E9 A 201      12.987  23.130   9.044  1.00 19.30     0.019 A 
HETATM    4  C39 1E9 A 201      11.581  23.271   9.010  1.00 19.11     0.030 A 
HETATM    5  C40 1E9 A 201      13.748  24.137   8.434  1.00 19.63     0.033 A 
HETATM    6  C41 1E9 A 201      13.147  25.229   7.826  1.00 16.72     0.096 A 
HETATM    7  S3  1E9 A 201      14.422  26.248   7.183  1.00 18.06     0.265 S 
HETATM    8  N5  1E9 A 201      15.655  25.278   7.720  1.00 17.57    -0.264 N 
HETATM    9  H5  1E9 A 201      16.644  25.481   7.578  1.00  0.00     0.180 HD
HETATM   10  C42 1E9 A 201      15.214  24.232   8.341  1.00 20.00     0.136 A 
HETATM   11  O3  1E9 A 201      14.397  26.180   5.708  1.00 20.15    -0.200 OA
HETATM   12  O4  1E9 A 201      14.427  27.566   7.836  1.00 17.05    -0.200 OA
ENDROOT
BRANCH  10  13
HETATM   13  N6  1E9 A 201      15.988  23.224   8.898  1.00 19.56    -0.264 N 
HETATM   14  H6  1E9 A 201      15.731  22.254   8.716  1.00  0.00     0.180 HD
BRANCH  13  15
HETATM   15  S2  1E9 A 201      17.345  23.538   9.869  1.00 22.41     0.264 S 
HETATM   16  O1  1E9 A 201      17.513  22.292  10.633  1.00 23.80    -0.200 OA
HETATM   17  O2  1E9 A 201      18.374  24.051   8.940  1.00 22.92    -0.200 OA
BRANCH  15  18
HETATM   18  C14 1E9 A 201      16.872  24.833  10.992  1.00 23.02     0.082 A 
HETATM   19  C13 1E9 A 201      17.425  26.116  10.871  1.00 21.77     0.028 A 
HETATM   20  C18 1E9 A 201      17.015  27.106  11.773  1.00 19.95     0.033 A 
HETATM   21  C17 1E9 A 201      16.058  26.840  12.787  1.00 22.61     0.061 A 
HETATM   22  C16 1E9 A 201      15.496  25.533  12.882  1.00 23.52     0.130 A 
HETATM   23  C15 1E9 A 201      15.924  24.535  11.980  1.00 21.63     0.063 A 
BRANCH  21  24
HETATM   24  N2  1E9 A 201      15.696  27.845  13.617  1.00 23.64    -0.383 N 
HETATM   25  H2  1E9 A 201      14.700  28.053  13.684  1.00  0.00     0.160 HD
BRANCH  24  26
HETATM   26  C2  1E9 A 201      16.600  28.662  14.427  1.00 26.22     0.093 C 
BRANCH  26  27
HETATM   27  C1  1E9 A 201      16.820  30.065  13.821  1.00 31.62     0.056 C 
BRANCH  27  28
HETATM   28  C3  1E9 A 201      18.267  30.590  13.867  1.00 33.21     0.273 C 
BRANCH  28  29
HETATM   29  N1  1E9 A 201      18.323  31.861  14.595  1.00 35.97     0.080 N 
HETATM   30  C6  1E9 A 201      16.988  32.448  14.644  1.00 32.92     0.309 C 
HETATM   31  C7  1E9 A 201      18.835  31.686  15.955  1.00 34.94     0.309 C 
ENDBRANCH  28  29
ENDBRANCH  27  28
ENDBRANCH  26  27
BRANCH  26  32
HETATM   32  C4  1E9 A 201      17.960  27.948  14.652  1.00 25.82     0.104 C 
BRANCH  32  33
HETATM   33  S1  1E9 A 201      18.097  26.805  16.079  1.00 29.66    -0.128 SA
BRANCH  33  34
HETATM   34  C5  1E9 A 201      18.939  27.669  17.356  1.00 22.11     0.000 A 
HETATM   35  C8  1E9 A 201      18.503  27.557  18.689  1.00 22.15     0.018 A 
HETATM   36  C9  1E9 A 201      19.192  28.258  19.698  1.00 19.48     0.001 A 
HETATM   37  C10 1E9 A 201      20.312  29.050  19.372  1.00 17.77     0.000 A 
HETATM   38  C11 1E9 A 201      20.743  29.158  18.034  1.00 21.70     0.001 A 
HETATM   39  C12 1E9 A 201      20.057  28.461  17.021  1.00 20.86     0.018 A 
ENDBRANCH  33  34
ENDBRANCH  32  33
ENDBRANCH  26  32
ENDBRANCH  24  26
ENDBRANCH  21  24
BRANCH  22  40
HETATM   40  N7  1E9 A 201      14.506  25.141  13.906  1.00 25.21    -0.113 N 
HETATM   41  O5  1E9 A 201      14.838  25.208  15.085  1.00 29.38    -0.532 OA
HETATM   42  O6  1E9 A 201      13.383  24.811  13.548  1.00 22.75    -0.532 OA
ENDBRANCH  22  40
ENDBRANCH  15  18
ENDBRANCH  13  15
ENDBRANCH  10  13
BRANCH   1  43
HETATM   43  N4  1E9 A 201       9.604  24.480   8.417  1.00 20.11    -0.377 N 
HETATM   44  C33 1E9 A 201       8.785  23.399   9.006  1.00 21.29     0.153 C 
HETATM   45  C32 1E9 A 201       7.356  23.862   9.400  1.00 19.39     0.292 C 
HETATM   46  N3  1E9 A 201       6.715  24.441   8.211  1.00 22.93     0.095 N 
HETATM   47  C35 1E9 A 201       7.456  25.666   7.866  1.00 21.59     0.292 C 
HETATM   48  C34 1E9 A 201       8.860  25.226   7.393  1.00 20.66     0.153 C 
BRANCH  46  49
HETATM   49  C31 1E9 A 201       5.288  24.706   8.443  1.00 24.32     0.312 C 
BRANCH  49  50
HETATM   50  C22 1E9 A 201       4.532  23.386   8.580  1.00 23.38    -0.019 A 
HETATM   51  C21 1E9 A 201       3.982  22.965   9.830  1.00 19.94    -0.018 A 
HETATM   52  C20 1E9 A 201       3.308  21.721   9.895  1.00 21.54     0.013 A 
HETATM   53  C19 1E9 A 201       3.202  20.889   8.757  1.00 24.24     0.001 A 
HETATM   54  C24 1E9 A 201       3.772  21.304   7.531  1.00 26.65     0.001 A 
HETATM   55  C23 1E9 A 201       4.435  22.546   7.441  1.00 23.38     0.010 A 
BRANCH  51  56
HETATM   56  C25 1E9 A 201       4.006  23.724  11.099  1.00 21.83    -0.025 A 
HETATM   57  C26 1E9 A 201       3.539  25.061  11.171  1.00 22.31     0.014 A 
HETATM   58  C27 1E9 A 201       3.530  25.762  12.400  1.00 21.61     0.024 A 
HETATM   59  C28 1E9 A 201       3.981  25.125  13.572  1.00 21.37     0.034 A 
HETATM   60  C29 1E9 A 201       4.453  23.795  13.520  1.00 18.64     0.024 A 
HETATM   61 CL1  1E9 A 201       3.963  25.972  15.077  1.00 25.72    -0.084 Cl
HETATM   62  C30 1E9 A 201       4.457  23.095  12.289  1.00 20.46     0.014 A 
ENDBRANCH  51  56
ENDBRANCH  49  50
ENDBRANCH  46  49
ENDBRANCH   1  43
TORSDOF 16
ENDMDL
MODEL 5
REMARK VINA RESULT:   -10.197      1.797      2.286
REMARK INTER + INTRA:         -21.983
REMARK INTER:                 -18.375
REMARK INTRA:                  -3.608
REMARK UNBOUND:                -2.248
REMARK  16 active torsions:
REMARK  status: ('A' for Active; 'I' for Inactive)
REMARK    1  A    between atoms: C1_1  and  C2_4 
REMARK    2  A    between atoms: C1_1  and  C3_6 
REMARK    3  A    between atoms: C2_4  and  C4_9 
REMARK    4  A    between atoms: C2_4  and  N2_33 
REMARK    5  A    between atoms: C3_6  and  N1_14 
REMARK    6  A    between atoms: C4_9  and  S1_12 
REMARK    7  A    between atoms: S1_12  and  C5_13 
REMARK    8  A    between atoms: N2_33  and  C17_41 
REMARK    9  A    between atoms: C14_37  and  S2_44 
REMARK   10  A    between atoms: C16_40  and  N7_102 
REMARK   11  A    between atoms: S2_44  and  N6_97 
REMARK   12  A    between atoms: C21_51  and  C25_57 
REMARK   13  A    between atoms: C22_52  and  C31_67 
REMARK   14  A    between atoms: C31_67  and  N3_70 
REMARK   15  A    between atoms: N4_77  and  C36_84 
REMARK   16  A    between atoms: C42_96  and  N6_97 
ROOT
HETATM    1  C36 1E9 A 201      10.751  23.975   8.352  1.00 18.75     0.031 A 
HETATM    2  C37 1E9 A 201      11.305  23.393   7.180  1.00 16.19     0.055 A 
HETATM    3  C38 1E9 A 201      12.994  24.063   9.404  1.00 19.30     0.019 A 
HETATM    4  C39 1E9 A 201      11.600  24.288   9.454  1.00 19.11     0.030 A 
HETATM    5  C40 1E9 A 201      13.512  23.501   8.228  1.00 19.63     0.033 A 
HETATM    6  C41 1E9 A 201      12.691  23.184   7.157  1.00 16.72     0.096 A 
HETATM    7  S3  1E9 A 201      13.703  22.506   5.894  1.00 18.06     0.265 S 
HETATM    8  N5  1E9 A 201      15.114  22.667   6.749  1.00 17.57    -0.264 N 
HETATM    9  H5  1E9 A 201      16.030  22.395   6.394  1.00  0.00     0.180 HD
HETATM   10  C42 1E9 A 201      14.915  23.180   7.921  1.00 20.00     0.136 A 
HETATM   11  O3  1E9 A 201      13.410  21.064   5.763  1.00 20.15    -0.200 OA
HETATM   12  O4  1E9 A 201      13.682  23.349   4.689  1.00 17.05    -0.200 OA
ENDROOT
BRANCH  10  13
HETATM   13  N6  1E9 A 201      15.886  23.431   8.879  1.00 19.56    -0.264 N 
HETATM   14  H6  1E9 A 201      15.736  23.091   9.828  1.00  0.00     0.180 HD
BRANCH  13  15
HETATM   15  S2  1E9 A 201      17.315  24.283   8.537  1.00 22.41     0.264 S 
HETATM   16  O1  1E9 A 201      18.307  23.216   8.334  1.00 23.80    -0.200 OA
HETATM   17  O2  1E9 A 201      16.947  25.244   7.477  1.00 22.92    -0.200 OA
BRANCH  15  18
HETATM   18  C14 1E9 A 201      17.737  25.176  10.016  1.00 23.02     0.082 A 
HETATM   19  C13 1E9 A 201      17.064  24.918  11.219  1.00 21.77     0.028 A 
HETATM   20  C18 1E9 A 201      17.437  25.640  12.359  1.00 19.95     0.033 A 
HETATM   21  C17 1E9 A 201      18.475  26.607  12.322  1.00 22.61     0.061 A 
HETATM   22  C16 1E9 A 201      19.158  26.842  11.092  1.00 23.52     0.130 A 
HETATM   23  C15 1E9 A 201      18.768  26.122   9.943  1.00 21.63     0.063 A 
BRANCH  21  24
HETATM   24  N2  1E9 A 201      18.795  27.260  13.463  1.00 23.64    -0.383 N 
HETATM   25  H2  1E9 A 201      19.405  26.771  14.119  1.00  0.00     0.160 HD
BRANCH  24  26
HETATM   26  C2  1E9 A 201      18.349  28.600  13.844  1.00 26.22     0.093 C 
BRANCH  26  27
HETATM   27  C1  1E9 A 201      18.023  28.700  15.350  1.00 31.62     0.056 C 
BRANCH  27  28
HETATM   28  C3  1E9 A 201      18.769  27.707  16.260  1.00 33.21     0.273 C 
BRANCH  28  29
HETATM   29  N1  1E9 A 201      19.878  28.380  16.943  1.00 35.97     0.080 N 
HETATM   30  C6  1E9 A 201      21.136  28.005  16.305  1.00 32.92     0.309 C 
HETATM   31  C7  1E9 A 201      19.727  29.836  16.918  1.00 34.94     0.309 C 
ENDBRANCH  28  29
ENDBRANCH  27  28
ENDBRANCH  26  27
BRANCH  26  32
HETATM   32  C4  1E9 A 201      17.133  29.055  12.993  1.00 25.82     0.104 C 
BRANCH  32  33
HETATM   33  S1  1E9 A 201      15.496  29.128  13.815  1.00 29.66    -0.128 SA
BRANCH  33  34
HETATM   34  C5  1E9 A 201      14.780  27.529  13.686  1.00 22.11     0.000 A 
HETATM   35  C8  1E9 A 201      13.998  27.196  12.565  1.00 22.15     0.018 A 
HETATM   36  C9  1E9 A 201      13.433  25.908  12.480  1.00 19.48     0.001 A 
HETATM   37  C10 1E9 A 201      13.662  24.965  13.502  1.00 17.77     0.000 A 
HETATM   38  C11 1E9 A 201      14.447  25.305  14.623  1.00 21.70     0.001 A 
HETATM   39  C12 1E9 A 201      15.013  26.592  14.714  1.00 20.86     0.018 A 
ENDBRANCH  33  34
ENDBRANCH  32  33
ENDBRANCH  26  32
ENDBRANCH  24  26
ENDBRANCH  21  24
BRANCH  22  40
HETATM   40  N7  1E9 A 201      20.241  27.835  10.934  1.00 25.21    -0.113 N 
HETATM   41  O5  1E9 A 201      19.932  29.021  10.869  1.00 29.38    -0.532 OA
HETATM   42  O6  1E9 A 201      21.401  27.448  10.922  1.00 22.75    -0.532 OA
ENDBRANCH  22  40
ENDBRANCH  15  18
ENDBRANCH  13  15
ENDBRANCH  10  13
BRANCH   1  43
HETATM   43  N4  1E9 A 201       9.426  24.235   8.459  1.00 20.11    -0.377 N 
HETATM   44  C33 1E9 A 201       8.439  23.136   8.534  1.00 21.29     0.153 C 
HETATM   45  C32 1E9 A 201       7.082  23.575   9.148  1.00 19.39     0.292 C 
HETATM   46  N3  1E9 A 201       6.570  24.711   8.368  1.00 22.93     0.095 N 
HETATM   47  C35 1E9 A 201       7.492  25.839   8.579  1.00 21.59     0.292 C 
HETATM   48  C34 1E9 A 201       8.831  25.459   7.905  1.00 20.66     0.153 C 
BRANCH  46  49
HETATM   49  C31 1E9 A 201       5.191  25.048   8.748  1.00 24.32     0.312 C 
BRANCH  49  50
HETATM   50  C22 1E9 A 201       4.349  23.775   8.827  1.00 23.38    -0.019 A 
HETATM   51  C21 1E9 A 201       3.810  23.310  10.066  1.00 19.94    -0.018 A 
HETATM   52  C20 1E9 A 201       3.054  22.112  10.076  1.00 21.54     0.013 A 
HETATM   53  C19 1E9 A 201       2.857  21.366   8.891  1.00 24.24     0.001 A 
HETATM   54  C24 1E9 A 201       3.418  21.821   7.675  1.00 26.65     0.001 A 
HETATM   55  C23 1E9 A 201       4.162  23.019   7.642  1.00 23.38     0.010 A 
BRANCH  51  56
HETATM   56  C25 1E9 A 201       3.924  23.981  11.380  1.00 21.83    -0.025 A 
HETATM   57  C26 1E9 A 201       3.456  25.305  11.577  1.00 22.31     0.014 A 
HETATM   58  C27 1E9 A 201       3.534  25.920  12.848  1.00 21.61     0.024 A 
HETATM   59  C28 1E9 A 201       4.074  25.210  13.937  1.00 21.37     0.034 A 
HETATM   60  C29 1E9 A 201       4.549  23.892  13.760  1.00 18.64     0.024 A 
HETATM   61 CL1  1E9 A 201       4.164  25.952  15.495  1.00 25.72    -0.084 Cl
HETATM   62  C30 1E9 A 201       4.466  23.277  12.486  1.00 20.46     0.014 A 
ENDBRANCH  51  56
ENDBRANCH  49  50
ENDBRANCH  46  49
ENDBRANCH   1  43
TORSDOF 16
ENDMDL
MODEL 6
REMARK VINA RESULT:   -10.021      2.628      3.946
REMARK INTER + INTRA:         -21.642
REMARK INTER:                 -17.306
REMARK INTRA:                  -4.337
REMARK UNBOUND:                -2.248
REMARK  16 active torsions:
REMARK  status: ('A' for Active; 'I' for Inactive)
REMARK    1  A    between atoms: C1_1  and  C2_4 
REMARK    2  A    between atoms: C1_1  and  C3_6 
REMARK    3  A    between atoms: C2_4  and  C4_9 
REMARK    4  A    between atoms: C2_4  and  N2_33 
REMARK    5  A    between atoms: C3_6  and  N1_14 
REMARK    6  A    between atoms: C4_9  and  S1_12 
REMARK    7  A    between atoms: S1_12  and  C5_13 
REMARK    8  A    between atoms: N2_33  and  C17_41 
REMARK    9  A    between atoms: C14_37  and  S2_44 
REMARK   10  A    between atoms: C16_40  and  N7_102 
REMARK   11  A    between atoms: S2_44  and  N6_97 
REMARK   12  A    between atoms: C21_51  and  C25_57 
REMARK   13  A    between atoms: C22_52  and  C31_67 
REMARK   14  A    between atoms: C31_67  and  N3_70 
REMARK   15  A    between atoms: N4_77  and  C36_84 
REMARK   16  A    between atoms: C42_96  and  N6_97 
ROOT
HETATM    1  C36 1E9 A 201      11.317  23.421   7.865  1.00 18.75     0.031 A 
HETATM    2  C37 1E9 A 201      12.059  23.067   6.707  1.00 16.19     0.055 A 
HETATM    3  C38 1E9 A 201      13.390  23.433   9.226  1.00 19.30     0.019 A 
HETATM    4  C39 1E9 A 201      11.989  23.584   9.112  1.00 19.11     0.030 A 
HETATM    5  C40 1E9 A 201      14.095  23.098   8.061  1.00 19.63     0.033 A 
HETATM    6  C41 1E9 A 201      13.447  22.927   6.848  1.00 16.72     0.096 A 
HETATM    7  S3  1E9 A 201      14.661  22.513   5.650  1.00 18.06     0.265 S 
HETATM    8  N5  1E9 A 201      15.932  22.593   6.712  1.00 17.57    -0.264 N 
HETATM    9  H5  1E9 A 201      16.903  22.424   6.452  1.00  0.00     0.180 HD
HETATM   10  C42 1E9 A 201      15.545  22.894   7.909  1.00 20.00     0.136 A 
HETATM   11  O3  1E9 A 201      14.486  21.102   5.253  1.00 20.15    -0.200 OA
HETATM   12  O4  1E9 A 201      14.745  23.542   4.603  1.00 17.05    -0.200 OA
ENDROOT
BRANCH  10  13
HETATM   13  N6  1E9 A 201      16.362  23.027   9.024  1.00 19.56    -0.264 N 
HETATM   14  H6  1E9 A 201      16.175  22.442   9.838  1.00  0.00     0.180 HD
BRANCH  13  15
HETATM   15  S2  1E9 A 201      17.659  24.121   9.087  1.00 22.41     0.264 S 
HETATM   16  O1  1E9 A 201      18.840  23.258   8.936  1.00 23.80    -0.200 OA
HETATM   17  O2  1E9 A 201      17.316  25.183   8.119  1.00 22.92    -0.200 OA
BRANCH  15  18
HETATM   18  C14 1E9 A 201      17.662  24.804  10.729  1.00 23.02     0.082 A 
HETATM   19  C13 1E9 A 201      18.050  26.134  10.945  1.00 21.77     0.028 A 
HETATM   20  C18 1E9 A 201      18.027  26.631  12.254  1.00 19.95     0.033 A 
HETATM   21  C17 1E9 A 201      17.617  25.826  13.349  1.00 22.61     0.061 A 
HETATM   22  C16 1E9 A 201      17.211  24.481  13.106  1.00 23.52     0.130 A 
HETATM   23  C15 1E9 A 201      17.249  23.981  11.786  1.00 21.63     0.063 A 
BRANCH  21  24
HETATM   24  N2  1E9 A 201      17.606  26.372  14.587  1.00 23.64    -0.383 N 
HETATM   25  H2  1E9 A 201      17.491  25.732  15.373  1.00  0.00     0.160 HD
BRANCH  24  26
HETATM   26  C2  1E9 A 201      17.744  27.793  14.904  1.00 26.22     0.093 C 
BRANCH  26  27
HETATM   27  C1  1E9 A 201      18.737  28.040  16.060  1.00 31.62     0.056 C 
BRANCH  27  28
HETATM   28  C3  1E9 A 201      19.964  28.902  15.711  1.00 33.21     0.273 C 
BRANCH  28  29
HETATM   29  N1  1E9 A 201      20.112  29.008  14.256  1.00 35.97     0.080 N 
HETATM   30  C6  1E9 A 201      20.011  30.409  13.862  1.00 32.92     0.309 C 
HETATM   31  C7  1E9 A 201      21.390  28.457  13.799  1.00 34.94     0.309 C 
ENDBRANCH  28  29
ENDBRANCH  27  28
ENDBRANCH  26  27
BRANCH  26  32
HETATM   32  C4  1E9 A 201      16.367  28.437  15.223  1.00 25.82     0.104 C 
BRANCH  32  33
HETATM   33  S1  1E9 A 201      15.301  28.915  13.809  1.00 29.66    -0.128 SA
BRANCH  33  34
HETATM   34  C5  1E9 A 201      14.488  27.457  13.259  1.00 22.11     0.000 A 
HETATM   35  C8  1E9 A 201      14.194  26.428  14.171  1.00 22.15     0.018 A 
HETATM   36  C9  1E9 A 201      13.541  25.268  13.710  1.00 19.48     0.001 A 
HETATM   37  C10 1E9 A 201      13.179  25.151  12.352  1.00 17.77     0.000 A 
HETATM   38  C11 1E9 A 201      13.477  26.187  11.443  1.00 21.70     0.001 A 
HETATM   39  C12 1E9 A 201      14.131  27.348  11.899  1.00 20.86     0.018 A 
ENDBRANCH  33  34
ENDBRANCH  32  33
ENDBRANCH  26  32
ENDBRANCH  24  26
ENDBRANCH  21  24
BRANCH  22  40
HETATM   40  N7  1E9 A 201      16.781  23.550  14.170  1.00 25.21    -0.113 N 
HETATM   41  O5  1E9 A 201      16.514  24.018  15.272  1.00 29.38    -0.532 OA
HETATM   42  O6  1E9 A 201      16.661  22.362  13.904  1.00 22.75    -0.532 OA
ENDBRANCH  22  40
ENDBRANCH  15  18
ENDBRANCH  13  15
ENDBRANCH  10  13
BRANCH   1  43
HETATM   43  N4  1E9 A 201       9.975  23.601   7.823  1.00 20.11    -0.377 N 
HETATM   44  C33 1E9 A 201       9.151  23.467   9.044  1.00 21.29     0.153 C 
HETATM   45  C32 1E9 A 201       7.776  24.180   8.932  1.00 19.39     0.292 C 
HETATM   46  N3  1E9 A 201       7.080  23.655   7.749  1.00 22.93     0.095 N 
HETATM   47  C35 1E9 A 201       7.848  24.076   6.566  1.00 21.59     0.292 C 
HETATM   48  C34 1E9 A 201       9.195  23.316   6.610  1.00 20.66     0.153 C 
BRANCH  46  49
HETATM   49  C31 1E9 A 201       5.686  24.119   7.694  1.00 24.32     0.312 C 
BRANCH  49  50
HETATM   50  C22 1E9 A 201       4.768  23.076   8.328  1.00 23.38    -0.019 A 
HETATM   51  C21 1E9 A 201       4.403  21.880   7.636  1.00 19.94    -0.018 A 
HETATM   52  C20 1E9 A 201       3.532  20.961   8.271  1.00 21.54     0.013 A 
HETATM   53  C19 1E9 A 201       3.002  21.227   9.555  1.00 24.24     0.001 A 
HETATM   54  C24 1E9 A 201       3.349  22.427  10.220  1.00 26.65     0.001 A 
HETATM   55  C23 1E9 A 201       4.226  23.348   9.611  1.00 23.38     0.010 A 
BRANCH  51  56
HETATM   56  C25 1E9 A 201       4.878  21.460   6.299  1.00 21.83    -0.025 A 
HETATM   57  C26 1E9 A 201       6.036  20.656   6.145  1.00 22.31     0.014 A 
HETATM   58  C27 1E9 A 201       6.456  20.228   4.864  1.00 21.61     0.024 A 
HETATM   59  C28 1E9 A 201       5.714  20.595   3.725  1.00 21.37     0.034 A 
HETATM   60  C29 1E9 A 201       4.561  21.399   3.858  1.00 18.64     0.024 A 
HETATM   61 CL1  1E9 A 201       6.217  20.068   2.158  1.00 25.72    -0.084 Cl
HETATM   62  C30 1E9 A 201       4.140  21.823   5.143  1.00 20.46     0.014 A 
ENDBRANCH  51  56
ENDBRANCH  49  50
ENDBRANCH  46  49
ENDBRANCH   1  43
TORSDOF 16
ENDMDL
MODEL 7
REMARK VINA RESULT:    -9.977      2.504      3.440
REMARK INTER + INTRA:         -21.557
REMARK INTER:                 -18.815
REMARK INTRA:                  -2.742
REMARK UNBOUND:                -2.248
REMARK  16 active torsions:
REMARK  status: ('A' for Active; 'I' for Inactive)
REMARK    1  A    between atoms: C1_1  and  C2_4 
REMARK    2  A    between atoms: C1_1  and  C3_6 
REMARK    3  A    between atoms: C2_4  and  C4_9 
REMARK    4  A    between atoms: C2_4  and  N2_33 
REMARK    5  A    between atoms: C3_6  and  N1_14 
REMARK    6  A    between atoms: C4_9  and  S1_12 
REMARK    7  A    between atoms: S1_12  and  C5_13 
REMARK    8  A    between atoms: N2_33  and  C17_41 
REMARK    9  A    between atoms: C14_37  and  S2_44 
REMARK   10  A    between atoms: C16_40  and  N7_102 
REMARK   11  A    between atoms: S2_44  and  N6_97 
REMARK   12  A    between atoms: C21_51  and  C25_57 
REMARK   13  A    between atoms: C22_52  and  C31_67 
REMARK   14  A    between atoms: C31_67  and  N3_70 
REMARK   15  A    between atoms: N4_77  and  C36_84 
REMARK   16  A    between atoms: C42_96  and  N6_97 
ROOT
HETATM    1  C36 1E9 A 201      10.918  24.238   8.746  1.00 18.75     0.031 A 
HETATM    2  C37 1E9 A 201      11.615  23.725   7.620  1.00 16.19     0.055 A 
HETATM    3  C38 1E9 A 201      13.046  24.461   9.999  1.00 19.30     0.019 A 
HETATM    4  C39 1E9 A 201      11.640  24.585   9.926  1.00 19.11     0.030 A 
HETATM    5  C40 1E9 A 201      13.706  23.965   8.865  1.00 19.63     0.033 A 
HETATM    6  C41 1E9 A 201      13.009  23.616   7.718  1.00 16.72     0.096 A 
HETATM    7  S3  1E9 A 201      14.176  23.041   6.540  1.00 18.06     0.265 S 
HETATM    8  N5  1E9 A 201      15.489  23.282   7.523  1.00 17.57    -0.264 N 
HETATM    9  H5  1E9 A 201      16.451  23.084   7.248  1.00  0.00     0.180 HD
HETATM   10  C42 1E9 A 201      15.151  23.751   8.680  1.00 20.00     0.136 A 
HETATM   11  O3  1E9 A 201      14.002  21.586   6.360  1.00 20.15    -0.200 OA
HETATM   12  O4  1E9 A 201      14.202  23.908   5.354  1.00 17.05    -0.200 OA
ENDROOT
BRANCH  10  13
HETATM   13  N6  1E9 A 201      16.012  24.049   9.727  1.00 19.56    -0.264 N 
HETATM   14  H6  1E9 A 201      15.787  23.701  10.659  1.00  0.00     0.180 HD
BRANCH  13  15
HETATM   15  S2  1E9 A 201      17.424  24.968   9.521  1.00 22.41     0.264 S 
HETATM   16  O1  1E9 A 201      18.499  24.023   9.860  1.00 23.80    -0.200 OA
HETATM   17  O2  1E9 A 201      17.294  25.582   8.183  1.00 22.92    -0.200 OA
BRANCH  15  18
HETATM   18  C14 1E9 A 201      17.380  26.245  10.757  1.00 23.02     0.082 A 
HETATM   19  C13 1E9 A 201      18.553  26.917  11.128  1.00 21.77     0.028 A 
HETATM   20  C18 1E9 A 201      18.467  27.922  12.099  1.00 19.95     0.033 A 
HETATM   21  C17 1E9 A 201      17.230  28.273  12.701  1.00 22.61     0.061 A 
HETATM   22  C16 1E9 A 201      16.046  27.588  12.298  1.00 23.52     0.130 A 
HETATM   23  C15 1E9 A 201      16.141  26.566  11.329  1.00 21.63     0.063 A 
BRANCH  21  24
HETATM   24  N2  1E9 A 201      17.214  29.262  13.624  1.00 23.64    -0.383 N 
HETATM   25  H2  1E9 A 201      16.304  29.534  13.994  1.00  0.00     0.160 HD
BRANCH  24  26
HETATM   26  C2  1E9 A 201      18.381  29.979  14.139  1.00 26.22     0.093 C 
BRANCH  26  27
HETATM   27  C1  1E9 A 201      18.693  29.607  15.605  1.00 31.62     0.056 C 
BRANCH  27  28
HETATM   28  C3  1E9 A 201      19.423  28.267  15.810  1.00 33.21     0.273 C 
BRANCH  28  29
HETATM   29  N1  1E9 A 201      19.805  28.107  17.216  1.00 35.97     0.080 N 
HETATM   30  C6  1E9 A 201      20.204  29.402  17.758  1.00 32.92     0.309 C 
HETATM   31  C7  1E9 A 201      18.711  27.554  18.016  1.00 34.94     0.309 C 
ENDBRANCH  28  29
ENDBRANCH  27  28
ENDBRANCH  26  27
BRANCH  26  32
HETATM   32  C4  1E9 A 201      18.211  31.515  13.992  1.00 25.82     0.104 C 
BRANCH  32  33
HETATM   33  S1  1E9 A 201      17.385  32.416  15.360  1.00 29.66    -0.128 SA
BRANCH  33  34
HETATM   34  C5  1E9 A 201      16.095  33.371  14.645  1.00 22.11     0.000 A 
HETATM   35  C8  1E9 A 201      14.974  33.729  15.417  1.00 22.15     0.018 A 
HETATM   36  C9  1E9 A 201      13.951  34.496  14.826  1.00 19.48     0.001 A 
HETATM   37  C10 1E9 A 201      14.060  34.908  13.481  1.00 17.77     0.000 A 
HETATM   38  C11 1E9 A 201      15.186  34.545  12.714  1.00 21.70     0.001 A 
HETATM   39  C12 1E9 A 201      16.212  33.777  13.300  1.00 20.86     0.018 A 
ENDBRANCH  33  34
ENDBRANCH  32  33
ENDBRANCH  26  32
ENDBRANCH  24  26
ENDBRANCH  21  24
BRANCH  22  40
HETATM   40  N7  1E9 A 201      14.709  27.859  12.867  1.00 25.21    -0.113 N 
HETATM   41  O5  1E9 A 201      14.338  29.027  12.937  1.00 29.38    -0.532 OA
HETATM   42  O6  1E9 A 201      14.006  26.916  13.201  1.00 22.75    -0.532 OA
ENDBRANCH  22  40
ENDBRANCH  15  18
ENDBRANCH  13  15
ENDBRANCH  10  13
BRANCH   1  43
HETATM   43  N4  1E9 A 201       9.573  24.401   8.737  1.00 20.11    -0.377 N 
HETATM   44  C33 1E9 A 201       8.669  23.275   9.055  1.00 21.29     0.153 C 
HETATM   45  C32 1E9 A 201       7.250  23.735   9.489  1.00 19.39     0.292 C 
HETATM   46  N3  1E9 A 201       6.699  24.590   8.428  1.00 22.93     0.095 N 
HETATM   47  C35 1E9 A 201       7.521  25.810   8.377  1.00 21.59     0.292 C 
HETATM   48  C34 1E9 A 201       8.920  25.390   7.869  1.00 20.66     0.153 C 
BRANCH  46  49
HETATM   49  C31 1E9 A 201       5.279  24.890   8.662  1.00 24.32     0.312 C 
BRANCH  49  50
HETATM   50  C22 1E9 A 201       4.479  23.591   8.734  1.00 23.38    -0.019 A 
HETATM   51  C21 1E9 A 201       3.904  23.133   9.959  1.00 19.94    -0.018 A 
HETATM   52  C20 1E9 A 201       3.191  21.909   9.964  1.00 21.54     0.013 A 
HETATM   53  C19 1E9 A 201       3.069  21.132   8.789  1.00 24.24     0.001 A 
HETATM   54  C24 1E9 A 201       3.664  21.582   7.587  1.00 26.65     0.001 A 
HETATM   55  C23 1E9 A 201       4.367  22.805   7.558  1.00 23.38     0.010 A 
BRANCH  51  56
HETATM   56  C25 1E9 A 201       3.940  23.834  11.261  1.00 21.83    -0.025 A 
HETATM   57  C26 1E9 A 201       3.461  25.161  11.401  1.00 22.31     0.014 A 
HETATM   58  C27 1E9 A 201       3.464  25.805  12.660  1.00 21.61     0.024 A 
HETATM   59  C28 1E9 A 201       3.939  25.121  13.795  1.00 21.37     0.034 A 
HETATM   60  C29 1E9 A 201       4.424  23.800  13.676  1.00 18.64     0.024 A 
HETATM   61 CL1  1E9 A 201       3.936  25.899  15.337  1.00 25.72    -0.084 Cl
HETATM   62  C30 1E9 A 201       4.416  23.156  12.414  1.00 20.46     0.014 A 
ENDBRANCH  51  56
ENDBRANCH  49  50
ENDBRANCH  46  49
ENDBRANCH   1  43
TORSDOF 16
ENDMDL
MODEL 8
REMARK VINA RESULT:    -9.885      2.076      2.813
REMARK INTER + INTRA:         -21.380
REMARK INTER:                 -17.342
REMARK INTRA:                  -4.038
REMARK UNBOUND:                -2.248
REMARK  16 active torsions:
REMARK  status: ('A' for Active; 'I' for Inactive)
REMARK    1  A    between atoms: C1_1  and  C2_4 
REMARK    2  A    between atoms: C1_1  and  C3_6 
REMARK    3  A    between atoms: C2_4  and  C4_9 
REMARK    4  A    between atoms: C2_4  and  N2_33 
REMARK    5  A    between atoms: C3_6  and  N1_14 
REMARK    6  A    between atoms: C4_9  and  S1_12 
REMARK    7  A    between atoms: S1_12  and  C5_13 
REMARK    8  A    between atoms: N2_33  and  C17_41 
REMARK    9  A    between atoms: C14_37  and  S2_44 
REMARK   10  A    between atoms: C16_40  and  N7_102 
REMARK   11  A    between atoms: S2_44  and  N6_97 
REMARK   12  A    between atoms: C21_51  and  C25_57 
REMARK   13  A    between atoms: C22_52  and  C31_67 
REMARK   14  A    between atoms: C31_67  and  N3_70 
REMARK   15  A    between atoms: N4_77  and  C36_84 
REMARK   16  A    between atoms: C42_96  and  N6_97 
ROOT
HETATM    1  C36 1E9 A 201      12.192  24.049   7.889  1.00 18.75     0.031 A 
HETATM    2  C37 1E9 A 201      12.850  24.807   6.884  1.00 16.19     0.055 A 
HETATM    3  C38 1E9 A 201      14.289  22.821   8.379  1.00 19.30     0.019 A 
HETATM    4  C39 1E9 A 201      12.915  23.056   8.612  1.00 19.11     0.030 A 
HETATM    5  C40 1E9 A 201      14.913  23.596   7.391  1.00 19.63     0.033 A 
HETATM    6  C41 1E9 A 201      14.214  24.556   6.676  1.00 16.72     0.096 A 
HETATM    7  S3  1E9 A 201      15.331  25.297   5.544  1.00 18.06     0.265 S 
HETATM    8  N5  1E9 A 201      16.633  24.390   6.027  1.00 17.57    -0.264 N 
HETATM    9  H5  1E9 A 201      17.568  24.479   5.631  1.00  0.00     0.180 HD
HETATM   10  C42 1E9 A 201      16.322  23.556   6.966  1.00 20.00     0.136 A 
HETATM   11  O3  1E9 A 201      14.972  24.885   4.172  1.00 20.15    -0.200 OA
HETATM   12  O4  1E9 A 201      15.510  26.726   5.835  1.00 17.05    -0.200 OA
ENDROOT
BRANCH  10  13
HETATM   13  N6  1E9 A 201      17.181  22.652   7.575  1.00 19.56    -0.264 N 
HETATM   14  H6  1E9 A 201      16.971  21.657   7.507  1.00  0.00     0.180 HD
BRANCH  13  15
HETATM   15  S2  1E9 A 201      18.567  23.135   8.430  1.00 22.41     0.264 S 
HETATM   16  O1  1E9 A 201      18.841  21.989   9.310  1.00 23.80    -0.200 OA
HETATM   17  O2  1E9 A 201      19.518  23.594   7.396  1.00 22.92    -0.200 OA
BRANCH  15  18
HETATM   18  C14 1E9 A 201      18.082  24.520   9.435  1.00 23.02     0.082 A 
HETATM   19  C13 1E9 A 201      17.454  24.316  10.671  1.00 21.77     0.028 A 
HETATM   20  C18 1E9 A 201      17.100  25.438  11.432  1.00 19.95     0.033 A 
HETATM   21  C17 1E9 A 201      17.369  26.757  10.983  1.00 22.61     0.061 A 
HETATM   22  C16 1E9 A 201      18.024  26.942   9.730  1.00 23.52     0.130 A 
HETATM   23  C15 1E9 A 201      18.365  25.809   8.961  1.00 21.63     0.063 A 
BRANCH  21  24
HETATM   24  N2  1E9 A 201      17.012  27.796  11.773  1.00 23.64    -0.383 N 
HETATM   25  H2  1E9 A 201      16.054  28.136  11.685  1.00  0.00     0.160 HD
BRANCH  24  26
HETATM   26  C2  1E9 A 201      17.871  28.479  12.741  1.00 26.22     0.093 C 
BRANCH  26  27
HETATM   27  C1  1E9 A 201      19.075  27.611  13.166  1.00 31.62     0.056 C 
BRANCH  27  28
HETATM   28  C3  1E9 A 201      20.322  28.386  13.631  1.00 33.21     0.273 C 
BRANCH  28  29
HETATM   29  N1  1E9 A 201      20.978  29.026  12.486  1.00 35.97     0.080 N 
HETATM   30  C6  1E9 A 201      21.097  30.459  12.738  1.00 32.92     0.309 C 
HETATM   31  C7  1E9 A 201      22.303  28.458  12.233  1.00 34.94     0.309 C 
ENDBRANCH  28  29
ENDBRANCH  27  28
ENDBRANCH  26  27
BRANCH  26  32
HETATM   32  C4  1E9 A 201      17.065  28.937  13.987  1.00 25.82     0.104 C 
BRANCH  32  33
HETATM   33  S1  1E9 A 201      17.109  27.864  15.473  1.00 29.66    -0.128 SA
BRANCH  33  34
HETATM   34  C5  1E9 A 201      16.449  26.304  15.005  1.00 22.11     0.000 A 
HETATM   35  C8  1E9 A 201      15.129  26.212  14.529  1.00 22.15     0.018 A 
HETATM   36  C9  1E9 A 201      14.619  24.952  14.159  1.00 19.48     0.001 A 
HETATM   37  C10 1E9 A 201      15.431  23.803  14.254  1.00 17.77     0.000 A 
HETATM   38  C11 1E9 A 201      16.753  23.903  14.732  1.00 21.70     0.001 A 
HETATM   39  C12 1E9 A 201      17.268  25.160  15.105  1.00 20.86     0.018 A 
ENDBRANCH  33  34
ENDBRANCH  32  33
ENDBRANCH  26  32
ENDBRANCH  24  26
ENDBRANCH  21  24
BRANCH  22  40
HETATM   40  N7  1E9 A 201      18.338  28.268   9.158  1.00 25.21    -0.113 N 
HETATM   41  O5  1E9 A 201      19.009  29.042   9.833  1.00 29.38    -0.532 OA
HETATM   42  O6  1E9 A 201      17.964  28.527   8.023  1.00 22.75    -0.532 OA
ENDBRANCH  22  40
ENDBRANCH  15  18
ENDBRANCH  13  15
ENDBRANCH  10  13
BRANCH   1  43
HETATM   43  N4  1E9 A 201      10.881  24.236   8.177  1.00 20.11    -0.377 N 
HETATM   44  C33 1E9 A 201      10.073  23.154   8.780  1.00 21.29     0.153 C 
HETATM   45  C32 1E9 A 201       8.794  23.672   9.492  1.00 19.39     0.292 C 
HETATM   46  N3  1E9 A 201       8.014  24.456   8.523  1.00 22.93     0.095 N 
HETATM   47  C35 1E9 A 201       8.803  25.653   8.191  1.00 21.59     0.292 C 
HETATM   48  C34 1E9 A 201      10.047  25.171   7.409  1.00 20.66     0.153 C 
BRANCH  46  49
HETATM   49  C31 1E9 A 201       6.686  24.800   9.054  1.00 24.32     0.312 C 
BRANCH  49  50
HETATM   50  C22 1E9 A 201       5.709  23.657   8.785  1.00 23.38    -0.019 A 
HETATM   51  C21 1E9 A 201       4.712  23.285   9.739  1.00 19.94    -0.018 A 
HETATM   52  C20 1E9 A 201       3.848  22.203   9.439  1.00 21.54     0.013 A 
HETATM   53  C19 1E9 A 201       3.981  21.479   8.231  1.00 24.24     0.001 A 
HETATM   54  C24 1E9 A 201       4.987  21.840   7.305  1.00 26.65     0.001 A 
HETATM   55  C23 1E9 A 201       5.849  22.923   7.580  1.00 23.38     0.010 A 
BRANCH  51  56
HETATM   56  C25 1E9 A 201       4.448  23.947  11.035  1.00 21.83    -0.025 A 
HETATM   57  C26 1E9 A 201       3.791  25.202  11.105  1.00 22.31     0.014 A 
HETATM   58  C27 1E9 A 201       3.508  25.805  12.352  1.00 21.61     0.024 A 
HETATM   59  C28 1E9 A 201       3.873  25.150  13.545  1.00 21.37     0.034 A 
HETATM   60  C29 1E9 A 201       4.531  23.902  13.496  1.00 18.64     0.024 A 
HETATM   61 CL1  1E9 A 201       3.522  25.877  15.072  1.00 25.72    -0.084 Cl
HETATM   62  C30 1E9 A 201       4.810  23.299  12.245  1.00 20.46     0.014 A 
ENDBRANCH  51  56
ENDBRANCH  49  50
ENDBRANCH  46  49
ENDBRANCH   1  43
TORSDOF 16
ENDMDL
MODEL 9
REMARK VINA RESULT:    -9.557      4.545     12.774
REMARK INTER + INTRA:         -20.745
REMARK INTER:                 -18.496
REMARK INTRA:                  -2.248
REMARK UNBOUND:                -2.248
REMARK  16 active torsions:
REMARK  status: ('A' for Active; 'I' for Inactive)
REMARK    1  A    between atoms: C1_1  and  C2_4 
REMARK    2  A    between atoms: C1_1  and  C3_6 
REMARK    3  A    between atoms: C2_4  and  C4_9 
REMARK    4  A    between atoms: C2_4  and  N2_33 
REMARK    5  A    between atoms: C3_6  and  N1_14 
REMARK    6  A    between atoms: C4_9  and  S1_12 
REMARK    7  A    between atoms: S1_12  and  C5_13 
REMARK    8  A    between atoms: N2_33  and  C17_41 
REMARK    9  A    between atoms: C14_37  and  S2_44 
REMARK   10  A    between atoms: C16_40  and  N7_102 
REMARK   11  A    between atoms: S2_44  and  N6_97 
REMARK   12  A    between atoms: C21_51  and  C25_57 
REMARK   13  A    between atoms: C22_52  and  C31_67 
REMARK   14  A    between atoms: C31_67  and  N3_70 
REMARK   15  A    between atoms: N4_77  and  C36_84 
REMARK   16  A    between atoms: C42_96  and  N6_97 
ROOT
HETATM    1  C36 1E9 A 201      12.118  23.841   8.830  1.00 18.75     0.031 A 
HETATM    2  C37 1E9 A 201      10.827  24.273   9.234  1.00 16.19     0.055 A 
HETATM    3  C38 1E9 A 201      11.115  22.319   7.149  1.00 19.30     0.019 A 
HETATM    4  C39 1E9 A 201      12.245  22.859   7.804  1.00 19.11     0.030 A 
HETATM    5  C40 1E9 A 201       9.855  22.777   7.562  1.00 19.63     0.033 A 
HETATM    6  C41 1E9 A 201       9.723  23.723   8.566  1.00 16.72     0.096 A 
HETATM    7  S3  1E9 A 201       8.010  24.025   8.792  1.00 18.06     0.265 S 
HETATM    8  N5  1E9 A 201       7.530  22.970   7.606  1.00 17.57    -0.264 N 
HETATM    9  H5  1E9 A 201       6.556  22.803   7.351  1.00  0.00     0.180 HD
HETATM   10  C42 1E9 A 201       8.535  22.385   7.040  1.00 20.00     0.136 A 
HETATM   11  O3  1E9 A 201       7.590  23.469  10.094  1.00 20.15    -0.200 OA
HETATM   12  O4  1E9 A 201       7.670  25.418   8.469  1.00 17.05    -0.200 OA
ENDROOT
BRANCH  10  13
HETATM   13  N6  1E9 A 201       8.468  21.443   6.024  1.00 19.56    -0.264 N 
HETATM   14  H6  1E9 A 201       8.995  20.575   6.126  1.00  0.00     0.180 HD
BRANCH  13  15
HETATM   15  S2  1E9 A 201       7.547  21.674   4.617  1.00 22.41     0.264 S 
HETATM   16  O1  1E9 A 201       8.208  22.811   3.958  1.00 23.80    -0.200 OA
HETATM   17  O2  1E9 A 201       7.449  20.337   3.994  1.00 22.92    -0.200 OA
BRANCH  15  18
HETATM   18  C14 1E9 A 201       5.931  22.190   5.152  1.00 23.02     0.082 A 
HETATM   19  C13 1E9 A 201       5.049  21.272   5.739  1.00 21.77     0.028 A 
HETATM   20  C18 1E9 A 201       3.791  21.727   6.153  1.00 19.95     0.033 A 
HETATM   21  C17 1E9 A 201       3.401  23.083   5.998  1.00 22.61     0.061 A 
HETATM   22  C16 1E9 A 201       4.319  24.004   5.413  1.00 23.52     0.130 A 
HETATM   23  C15 1E9 A 201       5.580  23.537   4.984  1.00 21.63     0.063 A 
BRANCH  21  24
HETATM   24  N2  1E9 A 201       2.176  23.460   6.431  1.00 23.64    -0.383 N 
HETATM   25  H2  1E9 A 201       1.465  23.623   5.719  1.00  0.00     0.160 HD
BRANCH  24  26
HETATM   26  C2  1E9 A 201       1.776  23.655   7.825  1.00 26.22     0.093 C 
BRANCH  26  27
HETATM   27  C1  1E9 A 201       0.349  24.230   7.948  1.00 31.62     0.056 C 
BRANCH  27  28
HETATM   28  C3  1E9 A 201       0.263  25.747   8.199  1.00 33.21     0.273 C 
BRANCH  28  29
HETATM   29  N1  1E9 A 201       0.084  26.462   6.931  1.00 35.97     0.080 N 
HETATM   30  C6  1E9 A 201      -0.946  25.794   6.142  1.00 32.92     0.309 C 
HETATM   31  C7  1E9 A 201      -0.289  27.861   7.146  1.00 34.94     0.309 C 
ENDBRANCH  28  29
ENDBRANCH  27  28
ENDBRANCH  26  27
BRANCH  26  32
HETATM   32  C4  1E9 A 201       2.792  24.552   8.584  1.00 25.82     0.104 C 
BRANCH  32  33
HETATM   33  S1  1E9 A 201       4.050  23.721   9.628  1.00 29.66    -0.128 SA
BRANCH  33  34
HETATM   34  C5  1E9 A 201       3.953  24.442  11.227  1.00 22.11     0.000 A 
HETATM   35  C8  1E9 A 201       3.720  25.823  11.364  1.00 22.15     0.018 A 
HETATM   36  C9  1E9 A 201       3.646  26.382  12.655  1.00 19.48     0.001 A 
HETATM   37  C10 1E9 A 201       3.791  25.560  13.792  1.00 17.77     0.000 A 
HETATM   38  C11 1E9 A 201       4.024  24.177  13.647  1.00 21.70     0.001 A 
HETATM   39  C12 1E9 A 201       4.100  23.613  12.359  1.00 20.86     0.018 A 
ENDBRANCH  33  34
ENDBRANCH  32  33
ENDBRANCH  26  32
ENDBRANCH  24  26
ENDBRANCH  21  24
BRANCH  22  40
HETATM   40  N7  1E9 A 201       4.014  25.433   5.188  1.00 25.21    -0.113 N 
HETATM   41  O5  1E9 A 201       3.110  25.714   4.407  1.00 29.38    -0.532 OA
HETATM   42  O6  1E9 A 201       4.636  26.276   5.819  1.00 22.75    -0.532 OA
ENDBRANCH  22  40
ENDBRANCH  15  18
ENDBRANCH  13  15
ENDBRANCH  10  13
BRANCH   1  43
HETATM   43  N4  1E9 A 201      13.244  24.332   9.401  1.00 20.11    -0.377 N 
HETATM   44  C33 1E9 A 201      13.170  25.319  10.501  1.00 21.29     0.153 C 
HETATM   45  C32 1E9 A 201      14.468  25.383  11.351  1.00 19.39     0.292 C 
HETATM   46  N3  1E9 A 201      15.596  25.659  10.450  1.00 22.93     0.095 N 
HETATM   47  C35 1E9 A 201      15.749  24.489   9.569  1.00 21.59     0.292 C 
HETATM   48  C34 1E9 A 201      14.503  24.449   8.653  1.00 20.66     0.153 C 
BRANCH  46  49
HETATM   49  C31 1E9 A 201      16.826  25.948  11.200  1.00 24.32     0.312 C 
BRANCH  49  50
HETATM   50  C22 1E9 A 201      16.731  25.349  12.602  1.00 23.38    -0.019 A 
HETATM   51  C21 1E9 A 201      16.486  26.165  13.750  1.00 19.94    -0.018 A 
HETATM   52  C20 1E9 A 201      16.429  25.552  15.025  1.00 21.54     0.013 A 
HETATM   53  C19 1E9 A 201      16.639  24.161  15.175  1.00 24.24     0.001 A 
HETATM   54  C24 1E9 A 201      16.906  23.367  14.035  1.00 26.65     0.001 A 
HETATM   55  C23 1E9 A 201      16.954  23.957  12.755  1.00 23.38     0.010 A 
BRANCH  51  56
HETATM   56  C25 1E9 A 201      16.241  27.624  13.753  1.00 21.83    -0.025 A 
HETATM   57  C26 1E9 A 201      14.968  28.161  13.434  1.00 22.31     0.014 A 
HETATM   58  C27 1E9 A 201      14.737  29.556  13.480  1.00 21.61     0.024 A 
HETATM   59  C28 1E9 A 201      15.778  30.426  13.856  1.00 21.37     0.034 A 
HETATM   60  C29 1E9 A 201      17.054  29.911  14.173  1.00 18.64     0.024 A 
HETATM   61 CL1  1E9 A 201      15.499  32.129  13.923  1.00 25.72    -0.084 Cl
HETATM   62  C30 1E9 A 201      17.281  28.513  14.130  1.00 20.46     0.014 A 
ENDBRANCH  51  56
ENDBRANCH  49  50
ENDBRANCH  46  49
ENDBRANCH   1  43
TORSDOF 16
ENDMDL
